Test Models/haus.glm


module tape; // modul, dass player und recorder klassen implementiert.
#set quiet=0

module residential {
	implicit_enduses NONE;
	ANSI_voltage_check FALSE;
}; //hausklasse

module powerflow{
	solver_method FBS;
	default_maximum_voltage_error 1e-9;
	line_limits FALSE;
};

// powerflow module kann unterschiedliche Solver Algos festlegen. NR_iteration_limit ist auf 500, ist der default wert.

module climate;
object climate {
 name "Seattle_Seattletacoma_Intl_A WA";
 tmyfile "../Klima/WA-Seattle_Seattletacoma_Intl_A.tmy3";
 interpolate QUADRATIC;

};

clock {
     timezone PST+8PDT;
     starttime '2009-01-01 00:00:00';
     stoptime '2009-01-02 01:00:00';
}

global int32 SEQ_A 0;

 
object triplex_meter:..10 {   
      name `meter_{SEQ_A:INC}`;
      phases AS;     
      voltage_1 120;     
      voltage_2 120;     
      voltage_N 0;     
      nominal_voltage 120;  
} 

global int32 SEQ_C 0;

object recorder:..10 {
     name `substation_recorder{SEQ_C:INC}`;
     parent `meter_{SEQ_C}`;
     interval 60;
     property measured_real_energy,measured_power,measured_real_power,measured_demand,monthly_bill,price;
     file `strom{SEQ_C}.csv`;

};	

global int32 SEQ_B 0;
object house:..10{
	name `house_{SEQ_B:INC}`;
	parent `meter_{SEQ_B}`;
	weather "Seattle_Seattletacoma_Intl_A WA";
	floor_area random.normal(1750,400);
	heating_setpoint 70;
	cooling_setpoint 78;
	air_temperature 79;
};  


global int32 SEQ_D 0;
object triplex_line:..10 {     
      groupid Triplex_Line;
      name `tline_{SEQ_D:INC}`;     
      phases AS;     
      from tnode_1;     
      to `meter_{SEQ_D}`;
      length 300;     
      configuration triplex_line_configuration_1;     
}

object triplex_line_configuration {     
      name triplex_line_configuration_1;     
      conductor_1 triplex_4/0 AA;    
      conductor_2 triplex_4/0 AA;    
      conductor_N triplex_4/0 AA;    
      insulation_thickness 0.08;     
      diameter 0.522;     
} 

object triplex_line_conductor {     
      name triplex_4/0 AA;    
      resistance 0.48;     
      geometric_mean_radius 0.0158;     
} 

object triplex_node {     
      name tnode_1;     
      phases AS;     
      voltage_1 120;     
      voltage_2 120;     
      voltage_N 0;     
      nominal_voltage 120;     
} 

object transformer {     
      groupid Distribution_Trans;
      name R1-12-47-1_xfmr_21;     
      phases AS;     
      from node_1;     
      to tnode_1;     
      configuration transformer_configuration_3084;     
}   

object transformer_configuration {     
      name transformer_configuration_3084;     
      connect_type SINGLE_PHASE_CENTER_TAPPED;     
      install_type PADMOUNT;     
      primary_voltage 7216.88 V;    
      secondary_voltage 120 V;    
      power_rating 30.0;     
      powerA_rating 30.0;     
      resistance 0.00500;     
      reactance 0.00333;     
      shunt_impedance 350.040+295.721j;     
}   

object node {     
      name node_1;     
      phases AN;     
      voltage_A 7216.88+0.0j;     
      nominal_voltage 7216.88;     
}  

